[92m[BUILD] Starting...[0m
mkdir -p .
nvcc ./src/loggers/csv_logger.cpp ./src/utils.cpp ./src/datasets/mnist.cpp ./src/layers/dense.cpp ./src/layers/layer.cpp ./src/optimizers/sgd.cpp ./src/models/sequential.cu ./src/tensor/tensor2d.cu ./src/tensor/tensor1d.cu ./src/configuration.cu ./src/layers/relu.cu ./src/loss/crossentropy.cu ./src/main.cu -lineinfo -o ./mlp2_hardware
nvcc ./src/loggers/csv_logger.cpp ./src/utils.cpp ./src/datasets/mnist.cpp ./src/layers/dense.cpp ./src/layers/layer.cpp ./src/optimizers/sgd.cpp ./src/models/sequential.cu ./src/tensor/tensor2d.cu ./src/tensor/tensor1d.cu ./src/configuration.cu ./src/layers/relu.cu ./src/loss/crossentropy.cu ./src/main.cu -lineinfo -o ./mlp2_sim --cudart shared -gencode arch=compute_61,code=compute_61
nvcc warning : The 'compute_20', 'sm_20', and 'sm_21' architectures are deprecated, and may be removed in a future release (Use -Wno-deprecated-gpu-targets to suppress warning).
[92m[BUILD] Completed![0m
[92m[TRAIN] Starting...[0m
GPGPU-Sim version 4.0.0 (build gpgpu-sim_git-commit-55c16e32efaf1fef8c57f6f7f827a9f581af99da-modified_566.0) configured with GPUWattch.

----------------------------------------------------------------------------
INFO - If you only care about PTX execution, ignore this message. GPGPU-Sim supports PTX execution in modern CUDA.
If you want to run PTXPLUS (sm_1x SASS) with a modern card configuration - set the envronment variable
$PTXAS_CUDA_INSTALL_PATH to point a CUDA version compabible with your card configurations (i.e. 8+ for PASCAL, 9+ for VOLTA etc..)
For example: "export $PTXAS_CUDA_INSTALL_PATH=/usr/local/cuda-9.1"

The following text describes why:
If you are using PTXPLUS, only sm_1x is supported and it requires that the app and simulator binaries are compiled in CUDA 4.2 or less.
The simulator requires it since CUDA headers desribe struct sizes in the exec which change from gen to gen.
The apps require 4.2 because new versions of CUDA tools have dropped parsing support for generating sm_1x
When running using modern config (i.e. volta) and PTXPLUS with CUDA 4.2, the $PTXAS_CUDA_INSTALL_PATH env variable is required to get proper register usage
(and hence occupancy) using a version of CUDA that knows the register usage on the real card.

----------------------------------------------------------------------------
setup_environment succeeded
=====================================
            Configuration
=====================================
 NumberOfEpochs: 100
 BatchSize: 25
 LearningRate: 1.000000e-02
=====================================

=====================================
         CUDA Configuration
=====================================
 Device name: GeForce RTX 2060 SUPER
 Memory Clock Rate (KHz): 7001000
 Memory Bus Width (bits): 256
-------------------------------------
 Tensor2DAddBlockSize: 8
 Tensor2DSubtractBlockSize: 8
 Tensor2DScaleBlockSize: 8
 Tensor2DMultiplyBlockSize: 8
 Tensor2DMultiplyBlockNumber: -1
 Tensor2DMultiplySharedMemory: 0
 Tensor2DMeanBlockSize: 8
-------------------------------------
 ReLuBlockSize: 8
-------------------------------------
 CrossEntropyGetMetricBlockSize: 64
 CrossEntropyCalculateBlockSize: 64
=====================================

Train Dataset Size: 60000, Batch Size: 25, Number of Batches: 2400
Epoch 1:
  - [Train] Loss=2.00494
  - [Train] Accuracy=38.66667%
  - [Train] Total Forward Time=0.00000ms
  - [Train] Total Backward Time=0.00000ms
  - [Train] Batch Forward Time=0.00000ms
  - [Train] Batch Backward Time=0.00000ms
Epoch 2:
  - [Train] Loss=1.41356
  - [Train] Accuracy=62.66667%
  - [Train] Total Forward Time=0.00000ms
  - [Train] Total Backward Time=0.00000ms
  - [Train] Batch Forward Time=0.00000ms
  - [Train] Batch Backward Time=0.00000ms
Epoch 3:
  - [Train] Loss=0.78492
  - [Train] Accuracy=81.33334%
  - [Train] Total Forward Time=0.00000ms
  - [Train] Total Backward Time=0.00000ms
  - [Train] Batch Forward Time=0.00000ms
  - [Train] Batch Backward Time=0.00000ms
Epoch 4:
  - [Train] Loss=0.89112
  - [Train] Accuracy=76.00000%
  - [Train] Total Forward Time=0.00000ms
  - [Train] Total Backward Time=0.00000ms
  - [Train] Batch Forward Time=0.00000ms
  - [Train] Batch Backward Time=0.00000ms
Epoch 5:
  - [Train] Loss=1.35894
  - [Train] Accuracy=57.33333%
  - [Train] Total Forward Time=0.00000ms
  - [Train] Total Backward Time=0.00000ms
  - [Train] Batch Forward Time=0.00000ms
  - [Train] Batch Backward Time=0.00000ms
Epoch 6:
  - [Train] Loss=nan
  - [Train] Accuracy=18.66667%
  - [Train] Total Forward Time=0.00000ms
  - [Train] Total Backward Time=0.00000ms
  - [Train] Batch Forward Time=0.00000ms
  - [Train] Batch Backward Time=0.00000ms
Epoch 7:
  - [Train] Loss=nan
  - [Train] Accuracy=12.00000%
  - [Train] Total Forward Time=0.00000ms
  - [Train] Total Backward Time=0.00000ms
  - [Train] Batch Forward Time=0.00000ms
  - [Train] Batch Backward Time=0.00000ms
Epoch 8:
  - [Train] Loss=nan
  - [Train] Accuracy=9.33333%
  - [Train] Total Forward Time=0.00000ms
  - [Train] Total Backward Time=0.00000ms
  - [Train] Batch Forward Time=0.00000ms
  - [Train] Batch Backward Time=0.00000ms
Epoch 9:
  - [Train] Loss=nan
  - [Train] Accuracy=9.33333%
  - [Train] Total Forward Time=0.00000ms
  - [Train] Total Backward Time=0.00000ms
  - [Train] Batch Forward Time=0.00000ms
  - [Train] Batch Backward Time=0.00000ms
Epoch 10:
  - [Train] Loss=nan
  - [Train] Accuracy=12.00000%
  - [Train] Total Forward Time=0.00000ms
  - [Train] Total Backward Time=0.00000ms
  - [Train] Batch Forward Time=0.00000ms
  - [Train] Batch Backward Time=0.00000ms
Epoch 11:
  - [Train] Loss=nan
  - [Train] Accuracy=10.66667%
  - [Train] Total Forward Time=0.00000ms
  - [Train] Total Backward Time=0.00000ms
  - [Train] Batch Forward Time=0.00000ms
  - [Train] Batch Backward Time=0.00000ms
Epoch 12:
  - [Train] Loss=nan
  - [Train] Accuracy=13.33333%
  - [Train] Total Forward Time=0.00000ms
  - [Train] Total Backward Time=0.00000ms
  - [Train] Batch Forward Time=0.00000ms
  - [Train] Batch Backward Time=0.00000ms
Epoch 13:
  - [Train] Loss=nan
  - [Train] Accuracy=14.66667%
  - [Train] Total Forward Time=0.00000ms
  - [Train] Total Backward Time=0.00000ms
  - [Train] Batch Forward Time=0.00000ms
  - [Train] Batch Backward Time=0.00000ms
Epoch 14:
  - [Train] Loss=nan
  - [Train] Accuracy=13.33333%
  - [Train] Total Forward Time=0.00000ms
  - [Train] Total Backward Time=0.00000ms
  - [Train] Batch Forward Time=0.00000ms
  - [Train] Batch Backward Time=0.00000ms
Epoch 15:
  - [Train] Loss=nan
  - [Train] Accuracy=10.66667%
  - [Train] Total Forward Time=0.00000ms
  - [Train] Total Backward Time=0.00000ms
  - [Train] Batch Forward Time=0.00000ms
  - [Train] Batch Backward Time=0.00000ms
Epoch 16:
  - [Train] Loss=nan
  - [Train] Accuracy=13.33333%
  - [Train] Total Forward Time=0.00000ms
  - [Train] Total Backward Time=0.00000ms
  - [Train] Batch Forward Time=0.00000ms
  - [Train] Batch Backward Time=0.00000ms
Epoch 17:
  - [Train] Loss=nan
  - [Train] Accuracy=10.66667%
  - [Train] Total Forward Time=0.00000ms
  - [Train] Total Backward Time=0.00000ms
  - [Train] Batch Forward Time=0.00000ms
  - [Train] Batch Backward Time=0.00000ms
Epoch 18:
  - [Train] Loss=nan
  - [Train] Accuracy=6.66667%
  - [Train] Total Forward Time=0.00000ms
  - [Train] Total Backward Time=0.00000ms
  - [Train] Batch Forward Time=0.00000ms
  - [Train] Batch Backward Time=0.00000ms
Epoch 19:
  - [Train] Loss=nan
  - [Train] Accuracy=5.33333%
  - [Train] Total Forward Time=0.00000ms
  - [Train] Total Backward Time=0.00000ms
  - [Train] Batch Forward Time=0.00000ms
  - [Train] Batch Backward Time=0.00000ms
Epoch 20:
  - [Train] Loss=nan
  - [Train] Accuracy=9.33333%
  - [Train] Total Forward Time=0.00000ms
  - [Train] Total Backward Time=0.00000ms
  - [Train] Batch Forward Time=0.00000ms
  - [Train] Batch Backward Time=0.00000ms
Epoch 21:
  - [Train] Loss=nan
  - [Train] Accuracy=20.00000%
  - [Train] Total Forward Time=0.00000ms
  - [Train] Total Backward Time=0.00000ms
  - [Train] Batch Forward Time=0.00000ms
  - [Train] Batch Backward Time=0.00000ms
Epoch 22:
  - [Train] Loss=nan
  - [Train] Accuracy=10.66667%
  - [Train] Total Forward Time=0.00000ms
  - [Train] Total Backward Time=0.00000ms
  - [Train] Batch Forward Time=0.00000ms
  - [Train] Batch Backward Time=0.00000ms
Epoch 23:
  - [Train] Loss=nan
  - [Train] Accuracy=8.00000%
  - [Train] Total Forward Time=0.00000ms
  - [Train] Total Backward Time=0.00000ms
  - [Train] Batch Forward Time=0.00000ms
  - [Train] Batch Backward Time=0.00000ms
Epoch 24:
  - [Train] Loss=nan
  - [Train] Accuracy=16.00000%
  - [Train] Total Forward Time=0.00000ms
  - [Train] Total Backward Time=0.00000ms
  - [Train] Batch Forward Time=0.00000ms
  - [Train] Batch Backward Time=0.00000ms
Epoch 25:
  - [Train] Loss=nan
  - [Train] Accuracy=12.00000%
  - [Train] Total Forward Time=0.00000ms
  - [Train] Total Backward Time=0.00000ms
  - [Train] Batch Forward Time=0.00000ms
  - [Train] Batch Backward Time=0.00000ms
Epoch 26:
  - [Train] Loss=nan
  - [Train] Accuracy=4.00000%
  - [Train] Total Forward Time=0.00000ms
  - [Train] Total Backward Time=0.00000ms
  - [Train] Batch Forward Time=0.00000ms
  - [Train] Batch Backward Time=0.00000ms
Epoch 27:
  - [Train] Loss=nan
  - [Train] Accuracy=16.00000%
  - [Train] Total Forward Time=0.00000ms
  - [Train] Total Backward Time=0.00000ms
  - [Train] Batch Forward Time=0.00000ms
  - [Train] Batch Backward Time=0.00000ms
Epoch 28:
  - [Train] Loss=nan
  - [Train] Accuracy=8.00000%
  - [Train] Total Forward Time=0.00000ms
  - [Train] Total Backward Time=0.00000ms
  - [Train] Batch Forward Time=0.00000ms
  - [Train] Batch Backward Time=0.00000ms
Epoch 29:
  - [Train] Loss=nan
  - [Train] Accuracy=9.33333%
  - [Train] Total Forward Time=0.00000ms
  - [Train] Total Backward Time=0.00000ms
  - [Train] Batch Forward Time=0.00000ms
  - [Train] Batch Backward Time=0.00000ms
Epoch 30:
  - [Train] Loss=nan
  - [Train] Accuracy=10.66667%
  - [Train] Total Forward Time=0.00000ms
  - [Train] Total Backward Time=0.00000ms
  - [Train] Batch Forward Time=0.00000ms
  - [Train] Batch Backward Time=0.00000ms
Epoch 31:
  - [Train] Loss=nan
  - [Train] Accuracy=10.66667%
  - [Train] Total Forward Time=0.00000ms
  - [Train] Total Backward Time=0.00000ms
  - [Train] Batch Forward Time=0.00000ms
  - [Train] Batch Backward Time=0.00000ms
Epoch 32:
  - [Train] Loss=nan
  - [Train] Accuracy=13.33333%
  - [Train] Total Forward Time=0.00000ms
  - [Train] Total Backward Time=0.00000ms
  - [Train] Batch Forward Time=0.00000ms
  - [Train] Batch Backward Time=0.00000ms
Epoch 33:
  - [Train] Loss=nan
  - [Train] Accuracy=12.00000%
  - [Train] Total Forward Time=0.00000ms
  - [Train] Total Backward Time=0.00000ms
  - [Train] Batch Forward Time=0.00000ms
  - [Train] Batch Backward Time=0.00000ms
Epoch 34:
  - [Train] Loss=nan
  - [Train] Accuracy=6.66667%
  - [Train] Total Forward Time=0.00000ms
  - [Train] Total Backward Time=0.00000ms
  - [Train] Batch Forward Time=0.00000ms
  - [Train] Batch Backward Time=0.00000ms
Epoch 35:
  - [Train] Loss=nan
  - [Train] Accuracy=9.33333%
  - [Train] Total Forward Time=0.00000ms
  - [Train] Total Backward Time=0.00000ms
  - [Train] Batch Forward Time=0.00000ms
  - [Train] Batch Backward Time=0.00000ms
Epoch 36:
  - [Train] Loss=nan
  - [Train] Accuracy=9.33333%
  - [Train] Total Forward Time=0.00000ms
  - [Train] Total Backward Time=0.00000ms
  - [Train] Batch Forward Time=0.00000ms
  - [Train] Batch Backward Time=0.00000ms
Epoch 37:
  - [Train] Loss=nan
  - [Train] Accuracy=6.66667%
  - [Train] Total Forward Time=0.00000ms
  - [Train] Total Backward Time=0.00000ms
  - [Train] Batch Forward Time=0.00000ms
  - [Train] Batch Backward Time=0.00000ms
Epoch 38:
  - [Train] Loss=nan
  - [Train] Accuracy=12.00000%
  - [Train] Total Forward Time=0.00000ms
  - [Train] Total Backward Time=0.00000ms
  - [Train] Batch Forward Time=0.00000ms
  - [Train] Batch Backward Time=0.00000ms
Epoch 39:
  - [Train] Loss=nan
  - [Train] Accuracy=8.00000%
  - [Train] Total Forward Time=0.00000ms
  - [Train] Total Backward Time=0.00000ms
  - [Train] Batch Forward Time=0.00000ms
  - [Train] Batch Backward Time=0.00000ms
Epoch 40:
  - [Train] Loss=nan
  - [Train] Accuracy=6.66667%
  - [Train] Total Forward Time=0.00000ms
  - [Train] Total Backward Time=0.00000ms
  - [Train] Batch Forward Time=0.00000ms
  - [Train] Batch Backward Time=0.00000ms
Epoch 41:
  - [Train] Loss=nan
  - [Train] Accuracy=14.66667%
  - [Train] Total Forward Time=0.00000ms
  - [Train] Total Backward Time=0.00000ms
  - [Train] Batch Forward Time=0.00000ms
  - [Train] Batch Backward Time=0.00000ms
Epoch 42:
  - [Train] Loss=nan
  - [Train] Accuracy=9.33333%
  - [Train] Total Forward Time=0.00000ms
  - [Train] Total Backward Time=0.00000ms
  - [Train] Batch Forward Time=0.00000ms
  - [Train] Batch Backward Time=0.00000ms
Epoch 43:
  - [Train] Loss=nan
  - [Train] Accuracy=5.33333%
  - [Train] Total Forward Time=0.00000ms
  - [Train] Total Backward Time=0.00000ms
  - [Train] Batch Forward Time=0.00000ms
  - [Train] Batch Backward Time=0.00000ms
Epoch 44:
  - [Train] Loss=nan
  - [Train] Accuracy=10.66667%
  - [Train] Total Forward Time=0.00000ms
  - [Train] Total Backward Time=0.00000ms
  - [Train] Batch Forward Time=0.00000ms
  - [Train] Batch Backward Time=0.00000ms
Epoch 45:
  - [Train] Loss=nan
  - [Train] Accuracy=6.66667%
  - [Train] Total Forward Time=0.00000ms
  - [Train] Total Backward Time=0.00000ms
  - [Train] Batch Forward Time=0.00000ms
  - [Train] Batch Backward Time=0.00000ms
Epoch 46:
  - [Train] Loss=nan
  - [Train] Accuracy=9.33333%
  - [Train] Total Forward Time=0.00000ms
  - [Train] Total Backward Time=0.00000ms
  - [Train] Batch Forward Time=0.00000ms
  - [Train] Batch Backward Time=0.00000ms
Epoch 47:
  - [Train] Loss=nan
  - [Train] Accuracy=12.00000%
  - [Train] Total Forward Time=0.00000ms
  - [Train] Total Backward Time=0.00000ms
  - [Train] Batch Forward Time=0.00000ms
  - [Train] Batch Backward Time=0.00000ms
Epoch 48:
  - [Train] Loss=nan
  - [Train] Accuracy=9.33333%
  - [Train] Total Forward Time=0.00000ms
  - [Train] Total Backward Time=0.00000ms
  - [Train] Batch Forward Time=0.00000ms
  - [Train] Batch Backward Time=0.00000ms
Epoch 49:
  - [Train] Loss=nan
  - [Train] Accuracy=10.66667%
  - [Train] Total Forward Time=0.00000ms
  - [Train] Total Backward Time=0.00000ms
  - [Train] Batch Forward Time=0.00000ms
  - [Train] Batch Backward Time=0.00000ms
Epoch 50:
  - [Train] Loss=nan
  - [Train] Accuracy=9.33333%
  - [Train] Total Forward Time=0.00000ms
  - [Train] Total Backward Time=0.00000ms
  - [Train] Batch Forward Time=0.00000ms
  - [Train] Batch Backward Time=0.00000ms
Epoch 51:
  - [Train] Loss=nan
  - [Train] Accuracy=12.00000%
  - [Train] Total Forward Time=0.00000ms
  - [Train] Total Backward Time=0.00000ms
  - [Train] Batch Forward Time=0.00000ms
  - [Train] Batch Backward Time=0.00000ms
Epoch 52:
  - [Train] Loss=nan
  - [Train] Accuracy=9.33333%
  - [Train] Total Forward Time=0.00000ms
  - [Train] Total Backward Time=0.00000ms
  - [Train] Batch Forward Time=0.00000ms
  - [Train] Batch Backward Time=0.00000ms
Epoch 53:
  - [Train] Loss=nan
  - [Train] Accuracy=8.00000%
  - [Train] Total Forward Time=0.00000ms
  - [Train] Total Backward Time=0.00000ms
  - [Train] Batch Forward Time=0.00000ms
  - [Train] Batch Backward Time=0.00000ms
Epoch 54:
  - [Train] Loss=nan
  - [Train] Accuracy=6.66667%
  - [Train] Total Forward Time=0.00000ms
  - [Train] Total Backward Time=0.00000ms
  - [Train] Batch Forward Time=0.00000ms
  - [Train] Batch Backward Time=0.00000ms
Epoch 55:
  - [Train] Loss=nan
  - [Train] Accuracy=6.66667%
  - [Train] Total Forward Time=0.00000ms
  - [Train] Total Backward Time=0.00000ms
  - [Train] Batch Forward Time=0.00000ms
  - [Train] Batch Backward Time=0.00000ms
Epoch 56:
  - [Train] Loss=nan
  - [Train] Accuracy=9.33333%
  - [Train] Total Forward Time=0.00000ms
  - [Train] Total Backward Time=0.00000ms
  - [Train] Batch Forward Time=0.00000ms
  - [Train] Batch Backward Time=0.00000ms
Epoch 57:
  - [Train] Loss=nan
  - [Train] Accuracy=12.00000%
  - [Train] Total Forward Time=0.00000ms
  - [Train] Total Backward Time=0.00000ms
  - [Train] Batch Forward Time=0.00000ms
  - [Train] Batch Backward Time=0.00000ms
Epoch 58:
  - [Train] Loss=nan
  - [Train] Accuracy=10.66667%
  - [Train] Total Forward Time=0.00000ms
  - [Train] Total Backward Time=0.00000ms
  - [Train] Batch Forward Time=0.00000ms
  - [Train] Batch Backward Time=0.00000ms
Epoch 59:
  - [Train] Loss=nan
  - [Train] Accuracy=8.00000%
  - [Train] Total Forward Time=0.00000ms
  - [Train] Total Backward Time=0.00000ms
  - [Train] Batch Forward Time=0.00000ms
  - [Train] Batch Backward Time=0.00000ms
Epoch 60:
  - [Train] Loss=nan
  - [Train] Accuracy=9.33333%
  - [Train] Total Forward Time=0.00000ms
  - [Train] Total Backward Time=0.00000ms
  - [Train] Batch Forward Time=0.00000ms
  - [Train] Batch Backward Time=0.00000ms
Epoch 61:
  - [Train] Loss=nan
  - [Train] Accuracy=12.00000%
  - [Train] Total Forward Time=0.00000ms
  - [Train] Total Backward Time=0.00000ms
  - [Train] Batch Forward Time=0.00000ms
  - [Train] Batch Backward Time=0.00000ms
Epoch 62:
  - [Train] Loss=nan
  - [Train] Accuracy=10.66667%
  - [Train] Total Forward Time=0.00000ms
  - [Train] Total Backward Time=0.00000ms
  - [Train] Batch Forward Time=0.00000ms
  - [Train] Batch Backward Time=0.00000ms
Epoch 63:
  - [Train] Loss=nan
  - [Train] Accuracy=9.33333%
  - [Train] Total Forward Time=0.00000ms
  - [Train] Total Backward Time=0.00000ms
  - [Train] Batch Forward Time=0.00000ms
  - [Train] Batch Backward Time=0.00000ms
Epoch 64:
  - [Train] Loss=nan
  - [Train] Accuracy=6.66667%
  - [Train] Total Forward Time=0.00000ms
  - [Train] Total Backward Time=0.00000ms
  - [Train] Batch Forward Time=0.00000ms
  - [Train] Batch Backward Time=0.00000ms
Epoch 65:
  - [Train] Loss=nan
  - [Train] Accuracy=13.33333%
  - [Train] Total Forward Time=0.00000ms
  - [Train] Total Backward Time=0.00000ms
  - [Train] Batch Forward Time=0.00000ms
  - [Train] Batch Backward Time=0.00000ms
Epoch 66:
  - [Train] Loss=nan
  - [Train] Accuracy=10.66667%
  - [Train] Total Forward Time=0.00000ms
  - [Train] Total Backward Time=0.00000ms
  - [Train] Batch Forward Time=0.00000ms
  - [Train] Batch Backward Time=0.00000ms
Epoch 67:
  - [Train] Loss=nan
  - [Train] Accuracy=16.00000%
  - [Train] Total Forward Time=0.00000ms
  - [Train] Total Backward Time=0.00000ms
  - [Train] Batch Forward Time=0.00000ms
  - [Train] Batch Backward Time=0.00000ms
Epoch 68:
  - [Train] Loss=nan
  - [Train] Accuracy=10.66667%
  - [Train] Total Forward Time=0.00000ms
  - [Train] Total Backward Time=0.00000ms
  - [Train] Batch Forward Time=0.00000ms
  - [Train] Batch Backward Time=0.00000ms
Epoch 69:
  - [Train] Loss=nan
  - [Train] Accuracy=12.00000%
  - [Train] Total Forward Time=0.00000ms
  - [Train] Total Backward Time=0.00000ms
  - [Train] Batch Forward Time=0.00000ms
  - [Train] Batch Backward Time=0.00000ms
Epoch 70:
  - [Train] Loss=nan
  - [Train] Accuracy=10.66667%
  - [Train] Total Forward Time=0.00000ms
  - [Train] Total Backward Time=0.00000ms
  - [Train] Batch Forward Time=0.00000ms
  - [Train] Batch Backward Time=0.00000ms
Epoch 71:
  - [Train] Loss=nan
  - [Train] Accuracy=12.00000%
  - [Train] Total Forward Time=0.00000ms
  - [Train] Total Backward Time=0.00000ms
  - [Train] Batch Forward Time=0.00000ms
  - [Train] Batch Backward Time=0.00000ms
Epoch 72:
  - [Train] Loss=nan
  - [Train] Accuracy=8.00000%
  - [Train] Total Forward Time=0.00000ms
  - [Train] Total Backward Time=0.00000ms
  - [Train] Batch Forward Time=0.00000ms
  - [Train] Batch Backward Time=0.00000ms
Epoch 73:
  - [Train] Loss=nan
  - [Train] Accuracy=12.00000%
  - [Train] Total Forward Time=0.00000ms
  - [Train] Total Backward Time=0.00000ms
  - [Train] Batch Forward Time=0.00000ms
  - [Train] Batch Backward Time=0.00000ms
Epoch 74:
  - [Train] Loss=nan
  - [Train] Accuracy=6.66667%
  - [Train] Total Forward Time=0.00000ms
  - [Train] Total Backward Time=0.00000ms
  - [Train] Batch Forward Time=0.00000ms
  - [Train] Batch Backward Time=0.00000ms
Epoch 75:
  - [Train] Loss=nan
  - [Train] Accuracy=10.66667%
  - [Train] Total Forward Time=0.00000ms
  - [Train] Total Backward Time=0.00000ms
  - [Train] Batch Forward Time=0.00000ms
  - [Train] Batch Backward Time=0.00000ms
Epoch 76:
  - [Train] Loss=nan
  - [Train] Accuracy=9.33333%
  - [Train] Total Forward Time=0.00000ms
  - [Train] Total Backward Time=0.00000ms
  - [Train] Batch Forward Time=0.00000ms
  - [Train] Batch Backward Time=0.00000ms
Epoch 77:
  - [Train] Loss=nan
  - [Train] Accuracy=8.00000%
  - [Train] Total Forward Time=0.00000ms
  - [Train] Total Backward Time=0.00000ms
  - [Train] Batch Forward Time=0.00000ms
  - [Train] Batch Backward Time=0.00000ms
Epoch 78:
  - [Train] Loss=nan
  - [Train] Accuracy=9.33333%
  - [Train] Total Forward Time=0.00000ms
  - [Train] Total Backward Time=0.00000ms
  - [Train] Batch Forward Time=0.00000ms
  - [Train] Batch Backward Time=0.00000ms
Epoch 79:
  - [Train] Loss=nan
  - [Train] Accuracy=9.33333%
  - [Train] Total Forward Time=0.00000ms
  - [Train] Total Backward Time=0.00000ms
  - [Train] Batch Forward Time=0.00000ms
  - [Train] Batch Backward Time=0.00000ms
Epoch 80:
  - [Train] Loss=nan
  - [Train] Accuracy=8.00000%
  - [Train] Total Forward Time=0.00000ms
  - [Train] Total Backward Time=0.00000ms
  - [Train] Batch Forward Time=0.00000ms
  - [Train] Batch Backward Time=0.00000ms
Epoch 81:
  - [Train] Loss=nan
  - [Train] Accuracy=9.33333%
  - [Train] Total Forward Time=0.00000ms
  - [Train] Total Backward Time=0.00000ms
  - [Train] Batch Forward Time=0.00000ms
  - [Train] Batch Backward Time=0.00000ms
Epoch 82:
  - [Train] Loss=nan
  - [Train] Accuracy=14.66667%
  - [Train] Total Forward Time=0.00000ms
  - [Train] Total Backward Time=0.00000ms
  - [Train] Batch Forward Time=0.00000ms
  - [Train] Batch Backward Time=0.00000ms
Epoch 83:
  - [Train] Loss=nan
  - [Train] Accuracy=14.66667%
  - [Train] Total Forward Time=0.00000ms
  - [Train] Total Backward Time=0.00000ms
  - [Train] Batch Forward Time=0.00000ms
  - [Train] Batch Backward Time=0.00000ms
Epoch 84:
  - [Train] Loss=nan
  - [Train] Accuracy=6.66667%
  - [Train] Total Forward Time=0.00000ms
  - [Train] Total Backward Time=0.00000ms
  - [Train] Batch Forward Time=0.00000ms
  - [Train] Batch Backward Time=0.00000ms
Epoch 85:
  - [Train] Loss=nan
  - [Train] Accuracy=12.00000%
  - [Train] Total Forward Time=0.00000ms
  - [Train] Total Backward Time=0.00000ms
  - [Train] Batch Forward Time=0.00000ms
  - [Train] Batch Backward Time=0.00000ms
Epoch 86:
  - [Train] Loss=nan
  - [Train] Accuracy=9.33333%
  - [Train] Total Forward Time=0.00000ms
  - [Train] Total Backward Time=0.00000ms
  - [Train] Batch Forward Time=0.00000ms
  - [Train] Batch Backward Time=0.00000ms
Epoch 87:
  - [Train] Loss=nan
  - [Train] Accuracy=12.00000%
  - [Train] Total Forward Time=0.00000ms
  - [Train] Total Backward Time=0.00000ms
  - [Train] Batch Forward Time=0.00000ms
  - [Train] Batch Backward Time=0.00000ms
Epoch 88:
  - [Train] Loss=nan
  - [Train] Accuracy=9.33333%
  - [Train] Total Forward Time=0.00000ms
  - [Train] Total Backward Time=0.00000ms
  - [Train] Batch Forward Time=0.00000ms
  - [Train] Batch Backward Time=0.00000ms
Epoch 89:
  - [Train] Loss=nan
  - [Train] Accuracy=6.66667%
  - [Train] Total Forward Time=0.00000ms
  - [Train] Total Backward Time=0.00000ms
  - [Train] Batch Forward Time=0.00000ms
  - [Train] Batch Backward Time=0.00000ms
Epoch 90:
  - [Train] Loss=nan
  - [Train] Accuracy=8.00000%
  - [Train] Total Forward Time=0.00000ms
  - [Train] Total Backward Time=0.00000ms
  - [Train] Batch Forward Time=0.00000ms
  - [Train] Batch Backward Time=0.00000ms
Epoch 91:
  - [Train] Loss=nan
  - [Train] Accuracy=16.00000%
  - [Train] Total Forward Time=0.00000ms
  - [Train] Total Backward Time=0.00000ms
  - [Train] Batch Forward Time=0.00000ms
  - [Train] Batch Backward Time=0.00000ms
Epoch 92:
  - [Train] Loss=nan
  - [Train] Accuracy=6.66667%
  - [Train] Total Forward Time=0.00000ms
  - [Train] Total Backward Time=0.00000ms
  - [Train] Batch Forward Time=0.00000ms
  - [Train] Batch Backward Time=0.00000ms
Epoch 93:
  - [Train] Loss=nan
  - [Train] Accuracy=8.00000%
  - [Train] Total Forward Time=0.00000ms
  - [Train] Total Backward Time=0.00000ms
  - [Train] Batch Forward Time=0.00000ms
  - [Train] Batch Backward Time=0.00000ms
Epoch 94:
  - [Train] Loss=nan
  - [Train] Accuracy=6.66667%
  - [Train] Total Forward Time=0.00000ms
  - [Train] Total Backward Time=0.00000ms
  - [Train] Batch Forward Time=0.00000ms
  - [Train] Batch Backward Time=0.00000ms
Epoch 95:
  - [Train] Loss=nan
  - [Train] Accuracy=5.33333%
  - [Train] Total Forward Time=0.00000ms
  - [Train] Total Backward Time=0.00000ms
  - [Train] Batch Forward Time=0.00000ms
  - [Train] Batch Backward Time=0.00000ms
Epoch 96:
  - [Train] Loss=nan
  - [Train] Accuracy=5.33333%
  - [Train] Total Forward Time=0.00000ms
  - [Train] Total Backward Time=0.00000ms
  - [Train] Batch Forward Time=0.00000ms
  - [Train] Batch Backward Time=0.00000ms
Epoch 97:
  - [Train] Loss=nan
  - [Train] Accuracy=8.00000%
  - [Train] Total Forward Time=0.00000ms
  - [Train] Total Backward Time=0.00000ms
  - [Train] Batch Forward Time=0.00000ms
  - [Train] Batch Backward Time=0.00000ms
Epoch 98:
  - [Train] Loss=nan
  - [Train] Accuracy=12.00000%
  - [Train] Total Forward Time=0.00000ms
  - [Train] Total Backward Time=0.00000ms
  - [Train] Batch Forward Time=0.00000ms
  - [Train] Batch Backward Time=0.00000ms
Epoch 99:
  - [Train] Loss=nan
  - [Train] Accuracy=18.66667%
  - [Train] Total Forward Time=0.00000ms
  - [Train] Total Backward Time=0.00000ms
  - [Train] Batch Forward Time=0.00000ms
  - [Train] Batch Backward Time=0.00000ms
Epoch 100:
  - [Train] Loss=nan
  - [Train] Accuracy=9.33333%
  - [Train] Total Forward Time=0.00000ms
  - [Train] Total Backward Time=0.00000ms
  - [Train] Batch Forward Time=0.00000ms
  - [Train] Batch Backward Time=0.00000ms
Epoch 101:
  - [Train] Loss=nan
  - [Train] Accuracy=8.00000%
  - [Train] Total Forward Time=0.00000ms
  - [Train] Total Backward Time=0.00000ms
  - [Train] Batch Forward Time=0.00000ms
  - [Train] Batch Backward Time=0.00000ms
Epoch 102:
  - [Train] Loss=nan
  - [Train] Accuracy=10.66667%
  - [Train] Total Forward Time=0.00000ms
  - [Train] Total Backward Time=0.00000ms
  - [Train] Batch Forward Time=0.00000ms
  - [Train] Batch Backward Time=0.00000ms
Epoch 103:
  - [Train] Loss=nan
  - [Train] Accuracy=8.00000%
  - [Train] Total Forward Time=0.00000ms
  - [Train] Total Backward Time=0.00000ms
  - [Train] Batch Forward Time=0.00000ms
  - [Train] Batch Backward Time=0.00000ms
Epoch 104:
  - [Train] Loss=nan
  - [Train] Accuracy=13.33333%
  - [Train] Total Forward Time=0.00000ms
  - [Train] Total Backward Time=0.00000ms
  - [Train] Batch Forward Time=0.00000ms
  - [Train] Batch Backward Time=0.00000ms
Epoch 105:
  - [Train] Loss=nan
  - [Train] Accuracy=9.33333%
  - [Train] Total Forward Time=0.00000ms
  - [Train] Total Backward Time=0.00000ms
  - [Train] Batch Forward Time=0.00000ms
  - [Train] Batch Backward Time=0.00000ms
Epoch 106:
  - [Train] Loss=nan
  - [Train] Accuracy=13.33333%
  - [Train] Total Forward Time=0.00000ms
  - [Train] Total Backward Time=0.00000ms
  - [Train] Batch Forward Time=0.00000ms
  - [Train] Batch Backward Time=0.00000ms
Epoch 107:
  - [Train] Loss=nan
  - [Train] Accuracy=24.00000%
  - [Train] Total Forward Time=0.00000ms
  - [Train] Total Backward Time=0.00000ms
  - [Train] Batch Forward Time=0.00000ms
  - [Train] Batch Backward Time=0.00000ms
Epoch 108:
  - [Train] Loss=nan
  - [Train] Accuracy=10.66667%
  - [Train] Total Forward Time=0.00000ms
  - [Train] Total Backward Time=0.00000ms
  - [Train] Batch Forward Time=0.00000ms
  - [Train] Batch Backward Time=0.00000ms
Epoch 109:
  - [Train] Loss=nan
  - [Train] Accuracy=9.33333%
  - [Train] Total Forward Time=0.00000ms
  - [Train] Total Backward Time=0.00000ms
  - [Train] Batch Forward Time=0.00000ms
  - [Train] Batch Backward Time=0.00000ms
Epoch 110:
  - [Train] Loss=nan
  - [Train] Accuracy=8.00000%
  - [Train] Total Forward Time=0.00000ms
  - [Train] Total Backward Time=0.00000ms
  - [Train] Batch Forward Time=0.00000ms
  - [Train] Batch Backward Time=0.00000ms
Epoch 111:
  - [Train] Loss=nan
  - [Train] Accuracy=6.66667%
  - [Train] Total Forward Time=0.00000ms
  - [Train] Total Backward Time=0.00000ms
  - [Train] Batch Forward Time=0.00000ms
  - [Train] Batch Backward Time=0.00000ms
Epoch 112:
  - [Train] Loss=nan
  - [Train] Accuracy=5.33333%
  - [Train] Total Forward Time=0.00000ms
  - [Train] Total Backward Time=0.00000ms
  - [Train] Batch Forward Time=0.00000ms
  - [Train] Batch Backward Time=0.00000ms
Epoch 113:
  - [Train] Loss=nan
  - [Train] Accuracy=9.33333%
  - [Train] Total Forward Time=0.00000ms
  - [Train] Total Backward Time=0.00000ms
  - [Train] Batch Forward Time=0.00000ms
  - [Train] Batch Backward Time=0.00000ms
Epoch 114:
  - [Train] Loss=nan
  - [Train] Accuracy=14.66667%
  - [Train] Total Forward Time=0.00000ms
  - [Train] Total Backward Time=0.00000ms
  - [Train] Batch Forward Time=0.00000ms
  - [Train] Batch Backward Time=0.00000ms
Epoch 115:
  - [Train] Loss=nan
  - [Train] Accuracy=14.66667%
  - [Train] Total Forward Time=0.00000ms
  - [Train] Total Backward Time=0.00000ms
  - [Train] Batch Forward Time=0.00000ms
  - [Train] Batch Backward Time=0.00000ms
Epoch 116:
  - [Train] Loss=nan
  - [Train] Accuracy=8.00000%
  - [Train] Total Forward Time=0.00000ms
  - [Train] Total Backward Time=0.00000ms
  - [Train] Batch Forward Time=0.00000ms
  - [Train] Batch Backward Time=0.00000ms
Epoch 117:
  - [Train] Loss=nan
  - [Train] Accuracy=9.33333%
  - [Train] Total Forward Time=0.00000ms
  - [Train] Total Backward Time=0.00000ms
  - [Train] Batch Forward Time=0.00000ms
  - [Train] Batch Backward Time=0.00000ms
Epoch 118:
  - [Train] Loss=nan
  - [Train] Accuracy=9.33333%
  - [Train] Total Forward Time=0.00000ms
  - [Train] Total Backward Time=0.00000ms
  - [Train] Batch Forward Time=0.00000ms
  - [Train] Batch Backward Time=0.00000ms
Epoch 119:
  - [Train] Loss=nan
  - [Train] Accuracy=8.00000%
  - [Train] Total Forward Time=0.00000ms
  - [Train] Total Backward Time=0.00000ms
  - [Train] Batch Forward Time=0.00000ms
  - [Train] Batch Backward Time=0.00000ms
Epoch 120:
  - [Train] Loss=nan
  - [Train] Accuracy=14.66667%
  - [Train] Total Forward Time=0.00000ms
  - [Train] Total Backward Time=0.00000ms
  - [Train] Batch Forward Time=0.00000ms
  - [Train] Batch Backward Time=0.00000ms
Epoch 121:
  - [Train] Loss=nan
  - [Train] Accuracy=13.33333%
  - [Train] Total Forward Time=0.00000ms
  - [Train] Total Backward Time=0.00000ms
  - [Train] Batch Forward Time=0.00000ms
  - [Train] Batch Backward Time=0.00000ms
Epoch 122:
  - [Train] Loss=nan
  - [Train] Accuracy=13.33333%
  - [Train] Total Forward Time=0.00000ms
  - [Train] Total Backward Time=0.00000ms
  - [Train] Batch Forward Time=0.00000ms
  - [Train] Batch Backward Time=0.00000ms
Epoch 123:
  - [Train] Loss=nan
  - [Train] Accuracy=13.33333%
  - [Train] Total Forward Time=0.00000ms
  - [Train] Total Backward Time=0.00000ms
  - [Train] Batch Forward Time=0.00000ms
  - [Train] Batch Backward Time=0.00000ms
Epoch 124:
  - [Train] Loss=nan
  - [Train] Accuracy=12.00000%
  - [Train] Total Forward Time=0.00000ms
  - [Train] Total Backward Time=0.00000ms
  - [Train] Batch Forward Time=0.00000ms
  - [Train] Batch Backward Time=0.00000ms
Epoch 125:
  - [Train] Loss=nan
  - [Train] Accuracy=10.66667%
  - [Train] Total Forward Time=0.00000ms
  - [Train] Total Backward Time=0.00000ms
  - [Train] Batch Forward Time=0.00000ms
  - [Train] Batch Backward Time=0.00000ms
Epoch 126:
  - [Train] Loss=nan
  - [Train] Accuracy=13.33333%
  - [Train] Total Forward Time=0.00000ms
  - [Train] Total Backward Time=0.00000ms
  - [Train] Batch Forward Time=0.00000ms
  - [Train] Batch Backward Time=0.00000ms
Epoch 127:
  - [Train] Loss=nan
  - [Train] Accuracy=14.66667%
  - [Train] Total Forward Time=0.00000ms
  - [Train] Total Backward Time=0.00000ms
  - [Train] Batch Forward Time=0.00000ms
  - [Train] Batch Backward Time=0.00000ms
Epoch 128:
  - [Train] Loss=nan
  - [Train] Accuracy=14.66667%
  - [Train] Total Forward Time=0.00000ms
  - [Train] Total Backward Time=0.00000ms
  - [Train] Batch Forward Time=0.00000ms
  - [Train] Batch Backward Time=0.00000ms
Epoch 129:
  - [Train] Loss=nan
  - [Train] Accuracy=21.33333%
  - [Train] Total Forward Time=0.00000ms
  - [Train] Total Backward Time=0.00000ms
  - [Train] Batch Forward Time=0.00000ms
  - [Train] Batch Backward Time=0.00000ms
Epoch 130:
  - [Train] Loss=nan
  - [Train] Accuracy=6.66667%
  - [Train] Total Forward Time=0.00000ms
  - [Train] Total Backward Time=0.00000ms
  - [Train] Batch Forward Time=0.00000ms
  - [Train] Batch Backward Time=0.00000ms
Epoch 131:
  - [Train] Loss=nan
  - [Train] Accuracy=12.00000%
  - [Train] Total Forward Time=0.00000ms
  - [Train] Total Backward Time=0.00000ms
  - [Train] Batch Forward Time=0.00000ms
  - [Train] Batch Backward Time=0.00000ms
Epoch 132:
  - [Train] Loss=nan
  - [Train] Accuracy=8.00000%
  - [Train] Total Forward Time=0.00000ms
  - [Train] Total Backward Time=0.00000ms
  - [Train] Batch Forward Time=0.00000ms
  - [Train] Batch Backward Time=0.00000ms
Epoch 133:
  - [Train] Loss=nan
  - [Train] Accuracy=12.00000%
  - [Train] Total Forward Time=0.00000ms
  - [Train] Total Backward Time=0.00000ms
  - [Train] Batch Forward Time=0.00000ms
  - [Train] Batch Backward Time=0.00000ms
Epoch 134:
  - [Train] Loss=nan
  - [Train] Accuracy=9.33333%
  - [Train] Total Forward Time=0.00000ms
  - [Train] Total Backward Time=0.00000ms
  - [Train] Batch Forward Time=0.00000ms
  - [Train] Batch Backward Time=0.00000ms
Epoch 135:
  - [Train] Loss=nan
  - [Train] Accuracy=5.33333%
  - [Train] Total Forward Time=0.00000ms
  - [Train] Total Backward Time=0.00000ms
  - [Train] Batch Forward Time=0.00000ms
  - [Train] Batch Backward Time=0.00000ms
Epoch 136:
  - [Train] Loss=nan
  - [Train] Accuracy=8.00000%
  - [Train] Total Forward Time=0.00000ms
  - [Train] Total Backward Time=0.00000ms
  - [Train] Batch Forward Time=0.00000ms
  - [Train] Batch Backward Time=0.00000ms
Epoch 137:
  - [Train] Loss=nan
  - [Train] Accuracy=5.33333%
  - [Train] Total Forward Time=0.00000ms
  - [Train] Total Backward Time=0.00000ms
  - [Train] Batch Forward Time=0.00000ms
  - [Train] Batch Backward Time=0.00000ms
Epoch 138:
  - [Train] Loss=nan
  - [Train] Accuracy=5.33333%
  - [Train] Total Forward Time=0.00000ms
  - [Train] Total Backward Time=0.00000ms
  - [Train] Batch Forward Time=0.00000ms
  - [Train] Batch Backward Time=0.00000ms
Epoch 139:
  - [Train] Loss=nan
  - [Train] Accuracy=13.33333%
  - [Train] Total Forward Time=0.00000ms
  - [Train] Total Backward Time=0.00000ms
  - [Train] Batch Forward Time=0.00000ms
  - [Train] Batch Backward Time=0.00000ms
Epoch 140:
  - [Train] Loss=nan
  - [Train] Accuracy=6.66667%
  - [Train] Total Forward Time=0.00000ms
  - [Train] Total Backward Time=0.00000ms
  - [Train] Batch Forward Time=0.00000ms
  - [Train] Batch Backward Time=0.00000ms
Epoch 141:
  - [Train] Loss=nan
  - [Train] Accuracy=6.66667%
  - [Train] Total Forward Time=0.00000ms
  - [Train] Total Backward Time=0.00000ms
  - [Train] Batch Forward Time=0.00000ms
  - [Train] Batch Backward Time=0.00000ms
Epoch 142:
  - [Train] Loss=nan
  - [Train] Accuracy=12.00000%
  - [Train] Total Forward Time=0.00000ms
  - [Train] Total Backward Time=0.00000ms
  - [Train] Batch Forward Time=0.00000ms
  - [Train] Batch Backward Time=0.00000ms
Epoch 143:
  - [Train] Loss=nan
  - [Train] Accuracy=9.33333%
  - [Train] Total Forward Time=0.00000ms
  - [Train] Total Backward Time=0.00000ms
  - [Train] Batch Forward Time=0.00000ms
  - [Train] Batch Backward Time=0.00000ms
Epoch 144:
  - [Train] Loss=nan
  - [Train] Accuracy=13.33333%
  - [Train] Total Forward Time=0.00000ms
  - [Train] Total Backward Time=0.00000ms
  - [Train] Batch Forward Time=0.00000ms
  - [Train] Batch Backward Time=0.00000ms
Epoch 145:
  - [Train] Loss=nan
  - [Train] Accuracy=13.33333%
  - [Train] Total Forward Time=0.00000ms
  - [Train] Total Backward Time=0.00000ms
  - [Train] Batch Forward Time=0.00000ms
  - [Train] Batch Backward Time=0.00000ms
Epoch 146:
  - [Train] Loss=nan
  - [Train] Accuracy=10.66667%
  - [Train] Total Forward Time=0.00000ms
  - [Train] Total Backward Time=0.00000ms
  - [Train] Batch Forward Time=0.00000ms
  - [Train] Batch Backward Time=0.00000ms
Epoch 147:
  - [Train] Loss=nan
  - [Train] Accuracy=10.66667%
  - [Train] Total Forward Time=0.00000ms
  - [Train] Total Backward Time=0.00000ms
  - [Train] Batch Forward Time=0.00000ms
  - [Train] Batch Backward Time=0.00000ms
Epoch 148:
  - [Train] Loss=nan
  - [Train] Accuracy=13.33333%
  - [Train] Total Forward Time=0.00000ms
  - [Train] Total Backward Time=0.00000ms
  - [Train] Batch Forward Time=0.00000ms
  - [Train] Batch Backward Time=0.00000ms
Epoch 149:
  - [Train] Loss=nan
  - [Train] Accuracy=4.00000%
  - [Train] Total Forward Time=0.00000ms
  - [Train] Total Backward Time=0.00000ms
  - [Train] Batch Forward Time=0.00000ms
  - [Train] Batch Backward Time=0.00000ms
Epoch 150:
  - [Train] Loss=nan
  - [Train] Accuracy=14.66667%
  - [Train] Total Forward Time=0.00000ms
  - [Train] Total Backward Time=0.00000ms
  - [Train] Batch Forward Time=0.00000ms
  - [Train] Batch Backward Time=0.00000ms
Epoch 151:
  - [Train] Loss=nan
  - [Train] Accuracy=14.66667%
  - [Train] Total Forward Time=0.00000ms
  - [Train] Total Backward Time=0.00000ms
  - [Train] Batch Forward Time=0.00000ms
  - [Train] Batch Backward Time=0.00000ms
Epoch 152:
  - [Train] Loss=nan
  - [Train] Accuracy=8.00000%
  - [Train] Total Forward Time=0.00000ms
  - [Train] Total Backward Time=0.00000ms
  - [Train] Batch Forward Time=0.00000ms
  - [Train] Batch Backward Time=0.00000ms
Epoch 153:
  - [Train] Loss=nan
  - [Train] Accuracy=2.66667%
  - [Train] Total Forward Time=0.00000ms
  - [Train] Total Backward Time=0.00000ms
  - [Train] Batch Forward Time=0.00000ms
  - [Train] Batch Backward Time=0.00000ms
Epoch 154:
  - [Train] Loss=nan
  - [Train] Accuracy=14.66667%
  - [Train] Total Forward Time=0.00000ms
  - [Train] Total Backward Time=0.00000ms
  - [Train] Batch Forward Time=0.00000ms
  - [Train] Batch Backward Time=0.00000ms
Epoch 155:
  - [Train] Loss=nan
  - [Train] Accuracy=14.66667%
  - [Train] Total Forward Time=0.00000ms
  - [Train] Total Backward Time=0.00000ms
  - [Train] Batch Forward Time=0.00000ms
  - [Train] Batch Backward Time=0.00000ms
Epoch 156:
  - [Train] Loss=nan
  - [Train] Accuracy=9.33333%
  - [Train] Total Forward Time=0.00000ms
  - [Train] Total Backward Time=0.00000ms
  - [Train] Batch Forward Time=0.00000ms
  - [Train] Batch Backward Time=0.00000ms
Epoch 157:
  - [Train] Loss=nan
  - [Train] Accuracy=16.00000%
  - [Train] Total Forward Time=0.00000ms
  - [Train] Total Backward Time=0.00000ms
  - [Train] Batch Forward Time=0.00000ms
  - [Train] Batch Backward Time=0.00000ms
Epoch 158:
  - [Train] Loss=nan
  - [Train] Accuracy=10.66667%
  - [Train] Total Forward Time=0.00000ms
  - [Train] Total Backward Time=0.00000ms
  - [Train] Batch Forward Time=0.00000ms
  - [Train] Batch Backward Time=0.00000ms
Epoch 159:
  - [Train] Loss=nan
  - [Train] Accuracy=6.66667%
  - [Train] Total Forward Time=0.00000ms
  - [Train] Total Backward Time=0.00000ms
  - [Train] Batch Forward Time=0.00000ms
  - [Train] Batch Backward Time=0.00000ms
Epoch 160:
  - [Train] Loss=nan
  - [Train] Accuracy=12.00000%
  - [Train] Total Forward Time=0.00000ms
  - [Train] Total Backward Time=0.00000ms
  - [Train] Batch Forward Time=0.00000ms
  - [Train] Batch Backward Time=0.00000ms
Epoch 161:
  - [Train] Loss=nan
  - [Train] Accuracy=4.00000%
  - [Train] Total Forward Time=0.00000ms
  - [Train] Total Backward Time=0.00000ms
  - [Train] Batch Forward Time=0.00000ms
  - [Train] Batch Backward Time=0.00000ms
Epoch 162:
  - [Train] Loss=nan
  - [Train] Accuracy=10.66667%
  - [Train] Total Forward Time=0.00000ms
  - [Train] Total Backward Time=0.00000ms
  - [Train] Batch Forward Time=0.00000ms
  - [Train] Batch Backward Time=0.00000ms
Epoch 163:
  - [Train] Loss=nan
  - [Train] Accuracy=8.00000%
  - [Train] Total Forward Time=0.00000ms
  - [Train] Total Backward Time=0.00000ms
  - [Train] Batch Forward Time=0.00000ms
  - [Train] Batch Backward Time=0.00000ms
Epoch 164:
  - [Train] Loss=nan
  - [Train] Accuracy=10.66667%
  - [Train] Total Forward Time=0.00000ms
  - [Train] Total Backward Time=0.00000ms
  - [Train] Batch Forward Time=0.00000ms
  - [Train] Batch Backward Time=0.00000ms
Epoch 165:
  - [Train] Loss=nan
  - [Train] Accuracy=5.33333%
  - [Train] Total Forward Time=0.00000ms
  - [Train] Total Backward Time=0.00000ms
  - [Train] Batch Forward Time=0.00000ms
  - [Train] Batch Backward Time=0.00000ms
Epoch 166:
  - [Train] Loss=nan
  - [Train] Accuracy=13.33333%
  - [Train] Total Forward Time=0.00000ms
  - [Train] Total Backward Time=0.00000ms
  - [Train] Batch Forward Time=0.00000ms
  - [Train] Batch Backward Time=0.00000ms
Epoch 167:
  - [Train] Loss=nan
  - [Train] Accuracy=9.33333%
  - [Train] Total Forward Time=0.00000ms
  - [Train] Total Backward Time=0.00000ms
  - [Train] Batch Forward Time=0.00000ms
  - [Train] Batch Backward Time=0.00000ms
Epoch 168:
  - [Train] Loss=nan
  - [Train] Accuracy=12.00000%
  - [Train] Total Forward Time=0.00000ms
  - [Train] Total Backward Time=0.00000ms
  - [Train] Batch Forward Time=0.00000ms
  - [Train] Batch Backward Time=0.00000ms
Epoch 169:
  - [Train] Loss=nan
  - [Train] Accuracy=5.33333%
  - [Train] Total Forward Time=0.00000ms
  - [Train] Total Backward Time=0.00000ms
  - [Train] Batch Forward Time=0.00000ms
  - [Train] Batch Backward Time=0.00000ms
Epoch 170:
  - [Train] Loss=nan
  - [Train] Accuracy=6.66667%
  - [Train] Total Forward Time=0.00000ms
  - [Train] Total Backward Time=0.00000ms
  - [Train] Batch Forward Time=0.00000ms
  - [Train] Batch Backward Time=0.00000ms
Epoch 171:
  - [Train] Loss=nan
  - [Train] Accuracy=13.33333%
  - [Train] Total Forward Time=0.00000ms
  - [Train] Total Backward Time=0.00000ms
  - [Train] Batch Forward Time=0.00000ms
  - [Train] Batch Backward Time=0.00000ms
Epoch 172:
  - [Train] Loss=nan
  - [Train] Accuracy=12.00000%
  - [Train] Total Forward Time=0.00000ms
  - [Train] Total Backward Time=0.00000ms
  - [Train] Batch Forward Time=0.00000ms
  - [Train] Batch Backward Time=0.00000ms
Epoch 173:
  - [Train] Loss=nan
  - [Train] Accuracy=9.33333%
  - [Train] Total Forward Time=0.00000ms
  - [Train] Total Backward Time=0.00000ms
  - [Train] Batch Forward Time=0.00000ms
  - [Train] Batch Backward Time=0.00000ms
Epoch 174:
  - [Train] Loss=nan
  - [Train] Accuracy=14.66667%
  - [Train] Total Forward Time=0.00000ms
  - [Train] Total Backward Time=0.00000ms
  - [Train] Batch Forward Time=0.00000ms
  - [Train] Batch Backward Time=0.00000ms
Epoch 175:
  - [Train] Loss=nan
  - [Train] Accuracy=8.00000%
  - [Train] Total Forward Time=0.00000ms
  - [Train] Total Backward Time=0.00000ms
  - [Train] Batch Forward Time=0.00000ms
  - [Train] Batch Backward Time=0.00000ms
Epoch 176:
  - [Train] Loss=nan
  - [Train] Accuracy=6.66667%
  - [Train] Total Forward Time=0.00000ms
  - [Train] Total Backward Time=0.00000ms
  - [Train] Batch Forward Time=0.00000ms
  - [Train] Batch Backward Time=0.00000ms
Epoch 177:
  - [Train] Loss=nan
  - [Train] Accuracy=6.66667%
  - [Train] Total Forward Time=0.00000ms
  - [Train] Total Backward Time=0.00000ms
  - [Train] Batch Forward Time=0.00000ms
  - [Train] Batch Backward Time=0.00000ms
Epoch 178:
  - [Train] Loss=nan
  - [Train] Accuracy=5.33333%
  - [Train] Total Forward Time=0.00000ms
  - [Train] Total Backward Time=0.00000ms
  - [Train] Batch Forward Time=0.00000ms
  - [Train] Batch Backward Time=0.00000ms
Epoch 179:
  - [Train] Loss=nan
  - [Train] Accuracy=9.33333%
  - [Train] Total Forward Time=0.00000ms
  - [Train] Total Backward Time=0.00000ms
  - [Train] Batch Forward Time=0.00000ms
  - [Train] Batch Backward Time=0.00000ms
Epoch 180:
  - [Train] Loss=nan
  - [Train] Accuracy=9.33333%
  - [Train] Total Forward Time=0.00000ms
  - [Train] Total Backward Time=0.00000ms
  - [Train] Batch Forward Time=0.00000ms
  - [Train] Batch Backward Time=0.00000ms
Epoch 181:
  - [Train] Loss=nan
  - [Train] Accuracy=10.66667%
  - [Train] Total Forward Time=0.00000ms
  - [Train] Total Backward Time=0.00000ms
  - [Train] Batch Forward Time=0.00000ms
  - [Train] Batch Backward Time=0.00000ms
Epoch 182:
  - [Train] Loss=nan
  - [Train] Accuracy=16.00000%
  - [Train] Total Forward Time=0.00000ms
  - [Train] Total Backward Time=0.00000ms
  - [Train] Batch Forward Time=0.00000ms
  - [Train] Batch Backward Time=0.00000ms
Epoch 183:
  - [Train] Loss=nan
  - [Train] Accuracy=5.33333%
  - [Train] Total Forward Time=0.00000ms
  - [Train] Total Backward Time=0.00000ms
  - [Train] Batch Forward Time=0.00000ms
  - [Train] Batch Backward Time=0.00000ms
Epoch 184:
  - [Train] Loss=nan
  - [Train] Accuracy=8.00000%
  - [Train] Total Forward Time=0.00000ms
  - [Train] Total Backward Time=0.00000ms
  - [Train] Batch Forward Time=0.00000ms
  - [Train] Batch Backward Time=0.00000ms
Epoch 185:
  - [Train] Loss=nan
  - [Train] Accuracy=8.00000%
  - [Train] Total Forward Time=0.00000ms
  - [Train] Total Backward Time=0.00000ms
  - [Train] Batch Forward Time=0.00000ms
  - [Train] Batch Backward Time=0.00000ms
Epoch 186:
  - [Train] Loss=nan
  - [Train] Accuracy=10.66667%
  - [Train] Total Forward Time=0.00000ms
  - [Train] Total Backward Time=0.00000ms
  - [Train] Batch Forward Time=0.00000ms
  - [Train] Batch Backward Time=0.00000ms
Epoch 187:
  - [Train] Loss=nan
  - [Train] Accuracy=10.66667%
  - [Train] Total Forward Time=0.00000ms
  - [Train] Total Backward Time=0.00000ms
  - [Train] Batch Forward Time=0.00000ms
  - [Train] Batch Backward Time=0.00000ms
Epoch 188:
  - [Train] Loss=nan
  - [Train] Accuracy=12.00000%
  - [Train] Total Forward Time=0.00000ms
  - [Train] Total Backward Time=0.00000ms
  - [Train] Batch Forward Time=0.00000ms
  - [Train] Batch Backward Time=0.00000ms
Epoch 189:
  - [Train] Loss=nan
  - [Train] Accuracy=6.66667%
  - [Train] Total Forward Time=0.00000ms
  - [Train] Total Backward Time=0.00000ms
  - [Train] Batch Forward Time=0.00000ms
  - [Train] Batch Backward Time=0.00000ms
Epoch 190:
  - [Train] Loss=nan
  - [Train] Accuracy=8.00000%
  - [Train] Total Forward Time=0.00000ms
  - [Train] Total Backward Time=0.00000ms
  - [Train] Batch Forward Time=0.00000ms
  - [Train] Batch Backward Time=0.00000ms
Epoch 191:
  - [Train] Loss=nan
  - [Train] Accuracy=12.00000%
  - [Train] Total Forward Time=0.00000ms
  - [Train] Total Backward Time=0.00000ms
  - [Train] Batch Forward Time=0.00000ms
  - [Train] Batch Backward Time=0.00000ms
Epoch 192:
  - [Train] Loss=nan
  - [Train] Accuracy=6.66667%
  - [Train] Total Forward Time=0.00000ms
  - [Train] Total Backward Time=0.00000ms
  - [Train] Batch Forward Time=0.00000ms
  - [Train] Batch Backward Time=0.00000ms
Epoch 193:
  - [Train] Loss=nan
  - [Train] Accuracy=14.66667%
  - [Train] Total Forward Time=0.00000ms
  - [Train] Total Backward Time=0.00000ms
  - [Train] Batch Forward Time=0.00000ms
  - [Train] Batch Backward Time=0.00000ms
Epoch 194:
  - [Train] Loss=nan
  - [Train] Accuracy=8.00000%
  - [Train] Total Forward Time=0.00000ms
  - [Train] Total Backward Time=0.00000ms
  - [Train] Batch Forward Time=0.00000ms
  - [Train] Batch Backward Time=0.00000ms
Epoch 195:
  - [Train] Loss=nan
  - [Train] Accuracy=9.33333%
  - [Train] Total Forward Time=0.00000ms
  - [Train] Total Backward Time=0.00000ms
  - [Train] Batch Forward Time=0.00000ms
  - [Train] Batch Backward Time=0.00000ms
Epoch 196:
  - [Train] Loss=nan
  - [Train] Accuracy=6.66667%
  - [Train] Total Forward Time=0.00000ms
  - [Train] Total Backward Time=0.00000ms
  - [Train] Batch Forward Time=0.00000ms
  - [Train] Batch Backward Time=0.00000ms
Epoch 197:
  - [Train] Loss=nan
  - [Train] Accuracy=8.00000%
  - [Train] Total Forward Time=0.00000ms
  - [Train] Total Backward Time=0.00000ms
  - [Train] Batch Forward Time=0.00000ms
  - [Train] Batch Backward Time=0.00000ms
Epoch 198:
  - [Train] Loss=nan
  - [Train] Accuracy=12.00000%
  - [Train] Total Forward Time=0.00000ms
  - [Train] Total Backward Time=0.00000ms
  - [Train] Batch Forward Time=0.00000ms
  - [Train] Batch Backward Time=0.00000ms
Epoch 199:
  - [Train] Loss=nan
  - [Train] Accuracy=16.00000%
  - [Train] Total Forward Time=0.00000ms
  - [Train] Total Backward Time=0.00000ms
  - [Train] Batch Forward Time=0.00000ms
  - [Train] Batch Backward Time=0.00000ms
Epoch 200:
  - [Train] Loss=nan
  - [Train] Accuracy=8.00000%
  - [Train] Total Forward Time=0.00000ms
  - [Train] Total Backward Time=0.00000ms
  - [Train] Batch Forward Time=0.00000ms
  - [Train] Batch Backward Time=0.00000ms
Starting save
[92m[TRAIN] Completed![0m
[92m[TEST] Starting...[0m
GPGPU-Sim version 4.0.0 (build gpgpu-sim_git-commit-55c16e32efaf1fef8c57f6f7f827a9f581af99da-modified_566.0) configured with GPUWattch.

----------------------------------------------------------------------------
INFO - If you only care about PTX execution, ignore this message. GPGPU-Sim supports PTX execution in modern CUDA.
If you want to run PTXPLUS (sm_1x SASS) with a modern card configuration - set the envronment variable
$PTXAS_CUDA_INSTALL_PATH to point a CUDA version compabible with your card configurations (i.e. 8+ for PASCAL, 9+ for VOLTA etc..)
For example: "export $PTXAS_CUDA_INSTALL_PATH=/usr/local/cuda-9.1"

The following text describes why:
If you are using PTXPLUS, only sm_1x is supported and it requires that the app and simulator binaries are compiled in CUDA 4.2 or less.
The simulator requires it since CUDA headers desribe struct sizes in the exec which change from gen to gen.
The apps require 4.2 because new versions of CUDA tools have dropped parsing support for generating sm_1x
When running using modern config (i.e. volta) and PTXPLUS with CUDA 4.2, the $PTXAS_CUDA_INSTALL_PATH env variable is required to get proper register usage
(and hence occupancy) using a version of CUDA that knows the register usage on the real card.

----------------------------------------------------------------------------
setup_environment succeeded
=====================================
            Configuration
=====================================
 NumberOfEpochs: 100
 BatchSize: 25
 LearningRate: 1.000000e-02
=====================================

=====================================
         CUDA Configuration
=====================================
 Device name: GeForce RTX 2060 SUPER
 Memory Clock Rate (KHz): 7001000
 Memory Bus Width (bits): 256
-------------------------------------
 Tensor2DAddBlockSize: 8
 Tensor2DSubtractBlockSize: 8
 Tensor2DScaleBlockSize: 8
 Tensor2DMultiplyBlockSize: 8
 Tensor2DMultiplyBlockNumber: -1
 Tensor2DMultiplySharedMemory: 0
 Tensor2DMeanBlockSize: 8
-------------------------------------
 ReLuBlockSize: 8
-------------------------------------
 CrossEntropyGetMetricBlockSize: 64
 CrossEntropyCalculateBlockSize: 64
=====================================

Starting load
  - [Test] Loss=nan
  - [Test] Accuracy=9.80000%

[92m[TEST] Completed![0m
[92m[CLEANUP] Starting...[0m
[92m[CLEANUP] Completed![0m
